
**** 11/11/22 12:18:28 ***** PSpice 16.6.0 (October 2012) ***** ID# 0 ********

 ** Profile: "SCHEMATIC1-freq_response"  [ G:\Personal Work\Designs\Simulations\LPF\Analog RC Filter\01-ChebyshevLPF\ChebyshevLPF-PSp


 ****     CIRCUIT DESCRIPTION


******************************************************************************




** Creating circuit file "freq_response.cir" 
** WARNING: THIS AUTOMATICALLY GENERATED FILE MAY BE OVERWRITTEN BY SUBSEQUENT SIMULATIONS

*Libraries: 
* Profile Libraries :
* Local Libraries :
* From [PSPICE NETLIST] section of C:\Users\Z3r0\AppData\Roaming\SPB_Data\cdssetup\OrCAD_PSpice/16.6.0/PSpice.ini file:
.lib "nom.lib" 

*Analysis directives: 
.AC LIN 100 10 120Meg
.OPTIONS ADVCONV
.PROBE64 V(alias(*)) I(alias(*)) W(alias(*)) D(alias(*)) NOISE(alias(*)) 
.INC "..\SCHEMATIC1.net" 



**** INCLUDING SCHEMATIC1.net ****
* source CHEBYSHEVLPF
L_L1         VIN VOUT  1uH  
C_C1         0 VIN  470p  TC=0,0 
C_C2         0 VOUT  470p  TC=0,0 
V_V1         VIN 0 DC 0Vdc AC 1Vac 

**** RESUMING freq_response.cir ****
.END

**** 11/11/22 12:18:28 ***** PSpice 16.6.0 (October 2012) ***** ID# 0 ********

 ** Profile: "SCHEMATIC1-freq_response"  [ G:\Personal Work\Designs\Simulations\LPF\Analog RC Filter\01-ChebyshevLPF\ChebyshevLPF-PSp


 ****     SMALL SIGNAL BIAS SOLUTION       TEMPERATURE =   27.000 DEG C


******************************************************************************



 NODE   VOLTAGE     NODE   VOLTAGE     NODE   VOLTAGE     NODE   VOLTAGE


(  VIN)    0.0000  ( VOUT)    0.0000  




    VOLTAGE SOURCE CURRENTS
    NAME         CURRENT

    V_V1         0.000E+00

    TOTAL POWER DISSIPATION   0.00E+00  WATTS



          JOB CONCLUDED

**** 11/11/22 12:18:28 ***** PSpice 16.6.0 (October 2012) ***** ID# 0 ********

 ** Profile: "SCHEMATIC1-freq_response"  [ G:\Personal Work\Designs\Simulations\LPF\Analog RC Filter\01-ChebyshevLPF\ChebyshevLPF-PSp


 ****     JOB STATISTICS SUMMARY


******************************************************************************



  Total job time (using Solver 1)   =         .02
