
**** 09/11/23 04:49:41 ***** PSpice 16.6.0 (October 2012) ***** ID# 0 ********

 ** Profile: "SCHEMATIC1-freq_response"  [ H:\OneDrive\Senior Project & Bachelor Thesis\Personal works\VGU-WirelessMeteorologyStation


 ****     CIRCUIT DESCRIPTION


******************************************************************************




** Creating circuit file "freq_response.cir" 
** WARNING: THIS AUTOMATICALLY GENERATED FILE MAY BE OVERWRITTEN BY SUBSEQUENT SIMULATIONS

*Libraries: 
* Profile Libraries :
* Local Libraries :
* From [PSPICE NETLIST] section of C:\Users\Z3r0\AppData\Roaming\SPB_Data\cdssetup\OrCAD_PSpice/16.6.0/PSpice.ini file:
.lib "nom.lib" 

*Analysis directives: 
.AC LIN 100 10 120Meg
.OPTIONS ADVCONV
.PROBE64 V(alias(*)) I(alias(*)) W(alias(*)) D(alias(*)) NOISE(alias(*)) 
.INC "..\SCHEMATIC1.net" 



**** INCLUDING SCHEMATIC1.net ****
* source CHEBYSHEVLPF
C_C2         0 VOUT  20.2n  TC=0,0 
V_V1         VIN 0 DC 0Vdc AC 1Vac 
R_R1         VIN VOUT  680 TC=0,0 

**** RESUMING freq_response.cir ****
.END

**** 09/11/23 04:49:41 ***** PSpice 16.6.0 (October 2012) ***** ID# 0 ********

 ** Profile: "SCHEMATIC1-freq_response"  [ H:\OneDrive\Senior Project & Bachelor Thesis\Personal works\VGU-WirelessMeteorologyStation


 ****     SMALL SIGNAL BIAS SOLUTION       TEMPERATURE =   27.000 DEG C


******************************************************************************



 NODE   VOLTAGE     NODE   VOLTAGE     NODE   VOLTAGE     NODE   VOLTAGE


(  VIN)    0.0000  ( VOUT)    0.0000  




    VOLTAGE SOURCE CURRENTS
    NAME         CURRENT

    V_V1         0.000E+00

    TOTAL POWER DISSIPATION   0.00E+00  WATTS



          JOB CONCLUDED

**** 09/11/23 04:49:41 ***** PSpice 16.6.0 (October 2012) ***** ID# 0 ********

 ** Profile: "SCHEMATIC1-freq_response"  [ H:\OneDrive\Senior Project & Bachelor Thesis\Personal works\VGU-WirelessMeteorologyStation


 ****     JOB STATISTICS SUMMARY


******************************************************************************



  Total job time (using Solver 1)   =         .02
